<?xml version="1.0" encoding="UTF-8"?>

<!-- generated on 09/20/21 14:06:38 by Eclipse SUMO netedit Version 1.6.0
<configuration xmlns:xsi="http://www.w3.org/2001/XMLSchema-instance" xsi:noNamespaceSchemaLocation="http://sumo.dlr.de/xsd/netconvertConfiguration.xsd">

    <input>
        <sumo-net-file value="E:\sumo\sumolights-master\networks\double.net.xml"/>
    </input>

    <output>
        <output-file value="E:\sumo\sumolights-master\networks\double.net.xml"/>
        <output.street-names value="true"/>
    </output>

    <processing>
        <geometry.min-radius.fix.railways value="false"/>
        <geometry.max-grade.fix value="false"/>
        <offset.disable-normalization value="true"/>
        <lefthand value="true"/>
    </processing>

    <junctions>
        <no-turnarounds value="true"/>
        <junctions.corner-detail value="5"/>
        <junctions.limit-turn-speed value="5.5"/>
        <rectangular-lane-cut value="false"/>
    </junctions>

    <pedestrian>
        <walkingareas value="false"/>
    </pedestrian>

    <report>
        <aggregate-warnings value="5"/>
    </report>

</configuration>
-->

<net version="1.6" junctionCornerDetail="5" lefthand="true" limitTurnSpeed="5.50" xmlns:xsi="http://www.w3.org/2001/XMLSchema-instance" xsi:noNamespaceSchemaLocation="http://sumo.dlr.de/xsd/net_file.xsd">

    <location netOffset="-428041.13,862981.32" convBoundary="0.00,0.00,6088.99,6112.39" origBoundary="110.347337,-7.806746,110.402587,-7.751411" projParameter="+proj=utm +zone=49 +ellps=WGS84 +datum=WGS84 +units=m +no_defs"/>

    <type id="highway.bridleway" priority="1" numLanes="1" speed="2.78" allow="pedestrian" oneway="1" width="2.00"/>
    <type id="highway.bus_guideway" priority="1" numLanes="1" speed="27.78" allow="bus" oneway="1"/>
    <type id="highway.cycleway" priority="1" numLanes="1" speed="8.33" allow="bicycle" oneway="0" width="1.00"/>
    <type id="highway.footway" priority="1" numLanes="1" speed="2.78" allow="pedestrian" oneway="1" width="2.00"/>
    <type id="highway.ford" priority="1" numLanes="1" speed="2.78" allow="army" oneway="0"/>
    <type id="highway.living_street" priority="2" numLanes="1" speed="2.78" disallow="tram rail_urban rail rail_electric rail_fast ship" oneway="0"/>
    <type id="highway.motorway" priority="14" numLanes="2" speed="39.44" allow="private emergency authority army vip passenger hov taxi bus coach delivery truck trailer motorcycle evehicle custom1 custom2" oneway="1"/>
    <type id="highway.motorway_link" priority="9" numLanes="1" speed="22.22" allow="private emergency authority army vip passenger hov taxi bus coach delivery truck trailer motorcycle evehicle custom1 custom2" oneway="1"/>
    <type id="highway.path" priority="1" numLanes="1" speed="2.78" allow="pedestrian bicycle" oneway="1" width="2.00"/>
    <type id="highway.pedestrian" priority="1" numLanes="1" speed="2.78" allow="pedestrian" oneway="1" width="2.00"/>
    <type id="highway.primary" priority="12" numLanes="2" speed="27.78" disallow="tram rail_urban rail rail_electric rail_fast ship" oneway="0"/>
    <type id="highway.primary_link" priority="7" numLanes="1" speed="22.22" disallow="tram rail_urban rail rail_electric rail_fast ship" oneway="0"/>
    <type id="highway.raceway" priority="15" numLanes="2" speed="83.33" allow="vip" oneway="0"/>
    <type id="highway.residential" priority="3" numLanes="1" speed="13.89" disallow="tram rail_urban rail rail_electric rail_fast ship" oneway="0"/>
    <type id="highway.secondary" priority="11" numLanes="1" speed="27.78" disallow="tram rail_urban rail rail_electric rail_fast ship" oneway="0"/>
    <type id="highway.secondary_link" priority="6" numLanes="1" speed="22.22" disallow="tram rail_urban rail rail_electric rail_fast ship" oneway="0"/>
    <type id="highway.service" priority="1" numLanes="1" speed="5.56" allow="pedestrian delivery bicycle" oneway="0"/>
    <type id="highway.stairs" priority="1" numLanes="1" speed="1.39" allow="pedestrian" oneway="1" width="2.00"/>
    <type id="highway.step" priority="1" numLanes="1" speed="1.39" allow="pedestrian" oneway="1" width="2.00"/>
    <type id="highway.steps" priority="1" numLanes="1" speed="1.39" allow="pedestrian" oneway="1" width="2.00"/>
    <type id="highway.tertiary" priority="10" numLanes="1" speed="22.22" disallow="tram rail_urban rail rail_electric rail_fast ship" oneway="0"/>
    <type id="highway.tertiary_link" priority="5" numLanes="1" speed="22.22" disallow="tram rail_urban rail rail_electric rail_fast ship" oneway="0"/>
    <type id="highway.track" priority="1" numLanes="1" speed="5.56" disallow="tram rail_urban rail rail_electric rail_fast ship" oneway="0"/>
    <type id="highway.trunk" priority="13" numLanes="2" speed="27.78" disallow="pedestrian bicycle tram rail_urban rail rail_electric rail_fast ship" oneway="0"/>
    <type id="highway.trunk_link" priority="8" numLanes="1" speed="22.22" disallow="pedestrian bicycle tram rail_urban rail rail_electric rail_fast ship" oneway="0"/>
    <type id="highway.unclassified" priority="4" numLanes="1" speed="13.89" disallow="tram rail_urban rail rail_electric rail_fast ship" oneway="0"/>
    <type id="highway.unsurfaced" priority="1" numLanes="1" speed="8.33" disallow="tram rail_urban rail rail_electric rail_fast ship" oneway="0"/>
    <type id="railway.highspeed" priority="21" numLanes="1" speed="69.44" allow="rail_fast" oneway="1"/>
    <type id="railway.light_rail" priority="19" numLanes="1" speed="27.78" allow="rail_urban" oneway="1"/>
    <type id="railway.preserved" priority="16" numLanes="1" speed="27.78" allow="rail" oneway="1"/>
    <type id="railway.rail" priority="20" numLanes="1" speed="44.44" allow="rail" oneway="1"/>
    <type id="railway.subway" priority="18" numLanes="1" speed="27.78" allow="rail_urban" oneway="1"/>
    <type id="railway.tram" priority="17" numLanes="1" speed="13.89" allow="tram" oneway="1"/>

    <edge id=":-101754_0" function="internal">
        <lane id=":-101754_0_0" index="0" disallow="tram rail_urban rail rail_electric rail_fast ship" speed="27.78" length="0.26" shape="2651.51,567.48 2651.26,567.48"/>
        <lane id=":-101754_0_1" index="1" disallow="tram rail_urban rail rail_electric rail_fast ship" speed="27.78" length="0.26" shape="2651.59,570.68 2651.32,570.68"/>
    </edge>
    <edge id=":-101754_2" function="internal">
        <lane id=":-101754_2_0" index="0" disallow="tram rail_urban rail rail_electric rail_fast ship" speed="27.78" length="0.33" shape="2651.42,577.08 2651.77,577.07"/>
        <lane id=":-101754_2_1" index="1" disallow="tram rail_urban rail rail_electric rail_fast ship" speed="27.78" length="0.33" shape="2651.37,573.88 2651.68,573.88"/>
    </edge>
    <edge id=":-101758_0" function="internal">
        <lane id=":-101758_0_0" index="0" disallow="tram rail_urban rail rail_electric rail_fast ship" speed="27.78" length="0.25" shape="2840.01,563.20 2839.78,563.20"/>
        <lane id=":-101758_0_1" index="1" disallow="tram rail_urban rail rail_electric rail_fast ship" speed="27.78" length="0.25" shape="2840.11,566.40 2839.84,566.40"/>
    </edge>
    <edge id=":-101758_2" function="internal">
        <lane id=":-101758_2_0" index="0" disallow="tram rail_urban rail rail_electric rail_fast ship" speed="27.78" length="0.33" shape="2839.97,572.80 2840.32,572.79"/>
        <lane id=":-101758_2_1" index="1" disallow="tram rail_urban rail rail_electric rail_fast ship" speed="27.78" length="0.33" shape="2839.91,569.60 2840.22,569.59"/>
    </edge>
    <edge id=":-101791_0" function="internal">
        <lane id=":-101791_0_0" index="0" disallow="tram rail_urban rail rail_electric rail_fast ship" speed="27.78" length="0.25" shape="2149.88,4945.90 2149.64,4945.93"/>
    </edge>
    <edge id=":-101806_0" function="internal">
        <lane id=":-101806_0_0" index="0" disallow="tram rail_urban rail rail_electric rail_fast ship" speed="6.33" length="9.04" shape="3451.48,2176.18 3451.24,2173.68 3451.87,2171.77 3453.39,2170.45 3455.79,2169.71"/>
    </edge>
    <edge id=":-101806_1" function="internal">
        <lane id=":-101806_1_0" index="0" disallow="tram rail_urban rail rail_electric rail_fast ship" speed="27.78" length="14.86" shape="3451.48,2176.18 3450.64,2172.55 3449.89,2168.92 3449.24,2165.28 3448.67,2161.59"/>
    </edge>
    <edge id=":-101806_2" function="internal">
        <lane id=":-101806_2_0" index="0" disallow="tram rail_urban rail rail_electric rail_fast ship" speed="8.90" length="15.00" shape="3451.48,2176.18 3450.01,2172.46 3447.70,2169.86 3444.54,2168.35 3440.54,2167.96"/>
    </edge>
    <edge id=":-101806_3" function="internal">
        <lane id=":-101806_3_0" index="0" disallow="tram rail_urban rail rail_electric rail_fast ship" speed="7.56" length="10.58" shape="3440.65,2171.16 3443.48,2171.44 3445.71,2172.49 3447.34,2174.33 3448.38,2176.94"/>
    </edge>
    <edge id=":-101806_4" function="internal">
        <lane id=":-101806_4_0" index="0" disallow="tram rail_urban rail rail_electric rail_fast ship" speed="20.84" length="15.41" shape="3440.65,2171.16 3443.98,2170.53 3447.00,2169.23 3450.51,2167.75 3455.29,2166.55"/>
    </edge>
    <edge id=":-101806_5" function="internal">
        <lane id=":-101806_5_0" index="0" disallow="tram rail_urban rail rail_electric rail_fast ship" speed="7.83" length="14.60" shape="3440.65,2171.16 3444.65,2170.43 3447.32,2168.60 3448.66,2165.65 3448.67,2161.59"/>
    </edge>
    <edge id=":-101806_6" function="internal">
        <lane id=":-101806_6_0" index="0" disallow="tram rail_urban rail rail_electric rail_fast ship" speed="6.29" length="9.04" shape="3445.51,2162.03 3445.50,2164.55 3444.66,2166.38 3443.01,2167.51 3440.54,2167.96"/>
    </edge>
    <edge id=":-101806_7" function="internal">
        <lane id=":-101806_7_0" index="0" disallow="tram rail_urban rail rail_electric rail_fast ship" speed="27.78" length="15.19" shape="3445.51,2162.03 3446.08,2165.77 3446.75,2169.52 3447.52,2173.26 3448.38,2176.94"/>
    </edge>
    <edge id=":-101806_8" function="internal">
        <lane id=":-101806_8_0" index="0" disallow="tram rail_urban rail rail_electric rail_fast ship" speed="7.41" length="12.18" shape="3445.51,2162.03 3446.43,2164.54 3448.37,2166.12 3451.32,2166.79 3455.29,2166.55"/>
    </edge>
    <edge id=":-101811_0" function="internal">
        <lane id=":-101811_0_0" index="0" disallow="tram rail_urban rail rail_electric rail_fast ship" speed="27.78" length="0.30" shape="3475.08,2166.68 3475.21,2166.66 3475.30,2166.65 3475.39,2166.63 3475.52,2166.59"/>
        <lane id=":-101811_0_1" index="1" disallow="tram rail_urban rail rail_electric rail_fast ship" speed="27.78" length="0.30" shape="3474.58,2163.52 3474.63,2163.52 3474.66,2163.51 3474.69,2163.50 3474.73,2163.49"/>
    </edge>
    <edge id=":-101839_0" function="internal">
        <lane id=":-101839_0_0" index="0" disallow="tram rail_urban rail rail_electric rail_fast ship" speed="27.78" length="0.25" shape="5048.54,1560.69 5048.51,1560.44"/>
    </edge>
    <edge id=":-101839_1" function="internal">
        <lane id=":-101839_1_0" index="0" disallow="tram rail_urban rail rail_electric rail_fast ship" speed="27.78" length="0.31" shape="5045.32,1560.76 5045.36,1561.07"/>
    </edge>
    <edge id=":-101849_0" function="internal">
        <lane id=":-101849_0_0" index="0" disallow="tram rail_urban rail rail_electric rail_fast ship" speed="27.78" length="0.10" shape="3374.38,1682.15 3374.38,1682.23"/>
    </edge>
    <edge id=":-101849_1" function="internal">
        <lane id=":-101849_1_0" index="0" disallow="tram rail_urban rail rail_electric rail_fast ship" speed="27.78" length="0.10" shape="3371.18,1682.33 3371.18,1682.41"/>
    </edge>
    <edge id=":-101853_0" function="internal">
        <lane id=":-101853_0_0" index="0" disallow="tram rail_urban rail rail_electric rail_fast ship" speed="27.78" length="0.19" shape="3401.01,1862.06 3400.97,1861.87"/>
    </edge>
    <edge id=":-101853_1" function="internal">
        <lane id=":-101853_1_0" index="0" disallow="tram rail_urban rail rail_electric rail_fast ship" speed="27.78" length="0.30" shape="3397.82,1862.43 3397.88,1862.72"/>
    </edge>
    <edge id=":-102004_0" function="internal">
        <lane id=":-102004_0_0" index="0" disallow="tram rail_urban rail rail_electric rail_fast ship" speed="27.78" length="0.26" shape="3327.43,4228.16 3327.34,4227.93"/>
        <lane id=":-102004_0_1" index="1" disallow="tram rail_urban rail rail_electric rail_fast ship" speed="27.78" length="0.26" shape="3324.48,4229.40 3324.38,4229.14"/>
    </edge>
    <edge id=":-102004_2" function="internal">
        <lane id=":-102004_2_0" index="0" disallow="tram rail_urban rail rail_electric rail_fast ship" speed="27.78" length="0.33" shape="3318.45,4231.56 3318.58,4231.87"/>
        <lane id=":-102004_2_1" index="1" disallow="tram rail_urban rail rail_electric rail_fast ship" speed="27.78" length="0.33" shape="3321.41,4230.35 3321.53,4230.64"/>
    </edge>
    <edge id=":-102010_0" function="internal">
        <lane id=":-102010_0_0" index="0" disallow="tram rail_urban rail rail_electric rail_fast ship" speed="27.78" length="0.30" shape="3180.59,3866.59 3180.48,3866.32"/>
        <lane id=":-102010_0_1" index="1" disallow="tram rail_urban rail rail_electric rail_fast ship" speed="27.78" length="0.30" shape="3177.64,3867.84 3177.53,3867.56"/>
    </edge>
    <edge id=":-102010_2" function="internal">
        <lane id=":-102010_2_0" index="0" disallow="tram rail_urban rail rail_electric rail_fast ship" speed="27.78" length="0.30" shape="3171.63,3870.05 3171.75,3870.33"/>
        <lane id=":-102010_2_1" index="1" disallow="tram rail_urban rail rail_electric rail_fast ship" speed="27.78" length="0.30" shape="3174.58,3868.80 3174.69,3869.08"/>
    </edge>
    <edge id=":-102064_0" function="internal">
        <lane id=":-102064_0_0" index="0" disallow="tram rail_urban rail rail_electric rail_fast ship" speed="8.46" length="4.82" shape="2285.73,1794.93 2284.77,1795.55 2284.04,1795.89 2283.26,1796.03 2282.11,1796.07"/>
        <lane id=":-102064_0_1" index="1" disallow="tram rail_urban rail rail_electric rail_fast ship" speed="10.20" length="4.82" shape="2287.52,1797.59 2286.10,1798.51 2285.02,1799.00 2283.86,1799.21 2282.16,1799.27"/>
    </edge>
    <edge id=":-102064_2" function="internal">
        <lane id=":-102064_2_0" index="0" disallow="tram rail_urban rail rail_electric rail_fast ship" speed="27.78" length="5.35" shape="2282.25,1805.67 2287.51,1805.67"/>
        <lane id=":-102064_2_1" index="1" disallow="tram rail_urban rail rail_electric rail_fast ship" speed="27.78" length="5.35" shape="2282.21,1802.47 2287.63,1802.47"/>
    </edge>
    <edge id=":-102283_0" function="internal">
        <lane id=":-102283_0_0" index="0" disallow="tram rail_urban rail rail_electric rail_fast ship" speed="27.78" length="0.20" shape="2789.84,1090.09 2789.65,1090.10"/>
    </edge>
    <edge id=":-102283_1" function="internal">
        <lane id=":-102283_1_0" index="0" disallow="tram rail_urban rail rail_electric rail_fast ship" speed="27.78" length="0.30" shape="2789.82,1093.29 2790.12,1093.27"/>
    </edge>
    <edge id=":-102305_0" function="internal">
        <lane id=":-102305_0_0" index="0" disallow="tram rail_urban rail rail_electric rail_fast ship" speed="27.78" length="0.33" shape="4649.34,4198.79 4649.01,4198.92"/>
        <lane id=":-102305_0_1" index="1" disallow="tram rail_urban rail rail_electric rail_fast ship" speed="27.78" length="0.33" shape="4650.44,4201.80 4650.14,4201.91"/>
    </edge>
    <edge id=":-102305_2" function="internal">
        <lane id=":-102305_2_0" index="0" disallow="tram rail_urban rail rail_electric rail_fast ship" speed="27.78" length="0.25" shape="4652.42,4207.89 4652.64,4207.81"/>
        <lane id=":-102305_2_1" index="1" disallow="tram rail_urban rail rail_electric rail_fast ship" speed="27.78" length="0.25" shape="4651.28,4204.90 4651.54,4204.80"/>
    </edge>
    <edge id=":-102307_0" function="internal">
        <lane id=":-102307_0_0" index="0" disallow="tram rail_urban rail rail_electric rail_fast ship" speed="27.78" length="21.27" shape="4798.26,4160.14 4789.25,4140.79"/>
        <lane id=":-102307_0_1" index="1" disallow="tram rail_urban rail rail_electric rail_fast ship" speed="27.78" length="21.27" shape="4795.32,4161.42 4786.37,4142.20"/>
    </edge>
    <edge id=":-102307_2" function="internal">
        <lane id=":-102307_2_0" index="0" disallow="tram rail_urban rail rail_electric rail_fast ship" speed="6.96" length="9.98" shape="4781.01,4161.21 4783.88,4160.53 4786.25,4160.77 4788.11,4161.92 4789.46,4163.98"/>
    </edge>
    <edge id=":-102307_3" function="internal">
        <lane id=":-102307_3_0" index="0" disallow="tram rail_urban rail rail_electric rail_fast ship" speed="8.38" length="14.89" shape="4779.92,4158.20 4784.10,4157.25 4787.57,4157.68 4790.34,4159.50 4792.39,4162.70"/>
    </edge>
    <edge id=":-102307_4" function="internal">
        <lane id=":-102307_4_0" index="0" disallow="tram rail_urban rail rail_electric rail_fast ship" speed="6.28" length="9.04" shape="4780.63,4145.02 4781.41,4147.42 4781.18,4149.41 4779.96,4151.00 4777.74,4152.18"/>
    </edge>
    <edge id=":-102307_5" function="internal">
        <lane id=":-102307_5_0" index="0" disallow="tram rail_urban rail rail_electric rail_fast ship" speed="27.78" length="20.92" shape="4780.63,4145.02 4789.46,4163.98"/>
    </edge>
    <edge id=":-102307_6" function="internal">
        <lane id=":-102307_6_0" index="0" disallow="tram rail_urban rail rail_electric rail_fast ship" speed="7.82" length="6.19" shape="4783.50,4143.61 4784.76,4147.48 4784.52,4149.59"/>
    </edge>
    <edge id=":-102307_7" function="internal">
        <lane id=":-102307_7_0" index="0" disallow="tram rail_urban rail rail_electric rail_fast ship" speed="27.78" length="21.06" shape="4783.50,4143.61 4792.39,4162.70"/>
    </edge>
    <edge id=":-102307_8" function="internal">
        <lane id=":-102307_8_0" index="0" disallow="tram rail_urban rail rail_electric rail_fast ship" speed="7.82" length="8.43" shape="4784.52,4149.59 4784.40,4150.70 4782.42,4153.27 4778.83,4155.19"/>
    </edge>
    <edge id=":-102384_0" function="internal">
        <lane id=":-102384_0_0" index="0" disallow="tram rail_urban rail rail_electric rail_fast ship" speed="27.78" length="0.70" shape="2237.25,570.16 2237.15,570.19 2237.08,570.20 2237.01,570.21 2236.91,570.22"/>
        <lane id=":-102384_0_1" index="1" disallow="tram rail_urban rail rail_electric rail_fast ship" speed="27.78" length="0.70" shape="2238.13,573.24 2237.83,573.32 2237.62,573.37 2237.41,573.39 2237.10,573.41"/>
    </edge>
    <edge id=":-102384_2" function="internal">
        <lane id=":-102384_2_0" index="0" disallow="tram rail_urban rail rail_electric rail_fast ship" speed="27.78" length="2.10" shape="2237.48,579.80 2238.20,579.76 2238.69,579.70 2239.18,579.59 2239.88,579.39"/>
        <lane id=":-102384_2_1" index="1" disallow="tram rail_urban rail rail_electric rail_fast ship" speed="27.78" length="2.10" shape="2237.29,576.61 2237.80,576.57 2238.16,576.53 2238.50,576.46 2239.00,576.32"/>
    </edge>
    <edge id=":-102396_0" function="internal">
        <lane id=":-102396_0_0" index="0" disallow="tram rail_urban rail rail_electric rail_fast ship" speed="27.78" length="1.33" shape="2464.59,570.19 2464.40,570.19 2464.26,570.18 2464.13,570.14 2463.95,570.07"/>
        <lane id=":-102396_0_1" index="1" disallow="tram rail_urban rail rail_electric rail_fast ship" speed="8.77" length="1.33" shape="2464.63,573.39 2464.04,573.39 2463.64,573.35 2463.25,573.24 2462.70,573.01"/>
    </edge>
    <edge id=":-102396_2" function="internal">
        <lane id=":-102396_2_0" index="0" disallow="tram rail_urban rail rail_electric rail_fast ship" speed="13.17" length="3.99" shape="2460.20,578.91 2461.47,579.43 2462.39,579.70 2463.33,579.79 2464.71,579.79"/>
        <lane id=":-102396_2_1" index="1" disallow="tram rail_urban rail rail_electric rail_fast ship" speed="11.19" length="3.99" shape="2461.45,575.96 2462.36,576.33 2463.01,576.52 2463.69,576.59 2464.67,576.59"/>
    </edge>
    <edge id=":-102908_0" function="internal">
        <lane id=":-102908_0_0" index="0" disallow="tram rail_urban rail rail_electric rail_fast ship" speed="6.55" length="9.05" shape="734.05,1823.05 731.57,1822.95 729.70,1822.09 728.45,1820.47 727.82,1818.09"/>
    </edge>
    <edge id=":-102908_1" function="internal">
        <lane id=":-102908_1_0" index="0" disallow="tram rail_urban rail rail_electric rail_fast ship" speed="8.67" length="16.81" shape="734.05,1823.05 728.89,1824.12 725.32,1826.13 723.35,1829.08 722.98,1832.97"/>
    </edge>
    <edge id=":-102908_2" function="internal">
        <lane id=":-102908_2_0" index="0" disallow="tram rail_urban rail rail_electric rail_fast ship" speed="6.51" length="9.01" shape="729.35,1832.35 729.46,1829.89 730.33,1828.04 731.97,1826.83 734.36,1826.24"/>
    </edge>
    <edge id=":-102908_3" function="internal">
        <lane id=":-102908_3_0" index="0" disallow="tram rail_urban rail rail_electric rail_fast ship" speed="27.78" length="14.31" shape="729.35,1832.35 727.82,1818.09"/>
        <lane id=":-102908_3_1" index="1" disallow="tram rail_urban rail rail_electric rail_fast ship" speed="27.78" length="14.31" shape="726.16,1832.66 724.64,1818.47"/>
    </edge>
    <edge id=":-102908_5" function="internal">
        <lane id=":-102908_5_0" index="0" disallow="tram rail_urban rail rail_electric rail_fast ship" speed="27.78" length="14.17" shape="718.28,1819.22 719.79,1833.28"/>
        <lane id=":-102908_5_1" index="1" disallow="tram rail_urban rail rail_electric rail_fast ship" speed="27.78" length="14.17" shape="721.46,1818.84 722.98,1832.97"/>
    </edge>
    <edge id=":-102908_7" function="internal">
        <lane id=":-102908_7_0" index="0" disallow="tram rail_urban rail rail_electric rail_fast ship" speed="8.71" length="16.77" shape="721.46,1818.84 722.65,1822.53 725.19,1824.99 729.10,1826.22 734.36,1826.24"/>
    </edge>
    <edge id=":-102912_0" function="internal">
        <lane id=":-102912_0_0" index="0" disallow="tram rail_urban rail rail_electric rail_fast ship" speed="27.78" length="0.54" shape="722.09,1923.18 722.09,1923.26 722.08,1923.31 722.08,1923.36 722.06,1923.44"/>
        <lane id=":-102912_0_1" index="1" disallow="tram rail_urban rail rail_electric rail_fast ship" speed="27.78" length="0.54" shape="725.29,1923.22 725.28,1923.46 725.27,1923.62 725.25,1923.78 725.21,1924.02"/>
    </edge>
    <edge id=":-102912_2" function="internal">
        <lane id=":-102912_2_0" index="0" disallow="tram rail_urban rail rail_electric rail_fast ship" speed="27.78" length="1.61" shape="731.50,1925.17 731.60,1924.63 731.65,1924.25 731.68,1923.87 731.69,1923.31"/>
        <lane id=":-102912_2_1" index="1" disallow="tram rail_urban rail rail_electric rail_fast ship" speed="27.78" length="1.61" shape="728.36,1924.60 728.43,1924.20 728.46,1923.94 728.48,1923.66 728.49,1923.27"/>
    </edge>
    <edge id=":-102961_0" function="internal">
        <lane id=":-102961_0_0" index="0" disallow="tram rail_urban rail rail_electric rail_fast ship" speed="27.78" length="0.27" shape="2410.16,1894.30 2410.23,1894.34 2410.28,1894.36 2410.33,1894.38 2410.41,1894.40"/>
    </edge>
    <edge id=":-102964_0" function="internal">
        <lane id=":-102964_0_0" index="0" disallow="tram rail_urban rail rail_electric rail_fast ship" speed="27.78" length="0.30" shape="2278.78,4952.93 2279.08,4952.93"/>
    </edge>
    <edge id=":-102967_0" function="internal">
        <lane id=":-102967_0_0" index="0" disallow="tram rail_urban rail rail_electric rail_fast ship" speed="27.78" length="0.29" shape="2306.99,4952.03 2307.29,4952.01"/>
    </edge>
    <edge id=":-103157_0" function="internal">
        <lane id=":-103157_0_0" index="0" disallow="tram rail_urban rail rail_electric rail_fast ship" speed="27.78" length="0.30" shape="2026.03,1404.54 2025.99,1404.23"/>
        <lane id=":-103157_0_1" index="1" disallow="tram rail_urban rail rail_electric rail_fast ship" speed="27.78" length="0.30" shape="2022.85,1404.94 2022.81,1404.66"/>
    </edge>
    <edge id=":-103161_0" function="internal">
        <lane id=":-103161_0_0" index="0" disallow="tram rail_urban rail rail_electric rail_fast ship" speed="6.91" length="9.52" shape="1996.97,1118.30 1994.29,1118.03 1992.27,1117.08 1990.91,1115.42 1990.22,1113.07"/>
    </edge>
    <edge id=":-103161_1" function="internal">
        <lane id=":-103161_1_0" index="0" disallow="tram rail_urban rail rail_electric rail_fast ship" speed="3.65" length="4.67" shape="1996.97,1118.30 1995.80,1119.13 1995.42,1119.94 1995.84,1120.73 1997.07,1121.49"/>
    </edge>
    <edge id=":-103161_2" function="internal">
        <lane id=":-103161_2_0" index="0" disallow="tram rail_urban rail rail_electric rail_fast ship" speed="6.33" length="9.04" shape="1991.97,1127.36 1992.05,1124.86 1992.92,1123.04 1994.60,1121.92 1997.07,1121.49"/>
    </edge>
    <edge id=":-103161_3" function="internal">
        <lane id=":-103161_3_0" index="0" disallow="tram rail_urban rail rail_electric rail_fast ship" speed="27.78" length="14.37" shape="1991.97,1127.36 1990.22,1113.07"/>
        <lane id=":-103161_3_1" index="1" disallow="tram rail_urban rail rail_electric rail_fast ship" speed="27.78" length="14.37" shape="1988.80,1127.73 1987.05,1113.49"/>
    </edge>
    <edge id=":-103162_0" function="internal">
        <lane id=":-103162_0_0" index="0" disallow="tram rail_urban rail rail_electric rail_fast ship" speed="27.78" length="8.11" shape="1961.00,891.99 1961.20,889.67 1962.13,888.16 1963.12,886.64 1963.50,884.30"/>
        <lane id=":-103162_0_1" index="1" disallow="tram rail_urban rail rail_electric rail_fast ship" speed="27.78" length="8.11" shape="1961.00,891.99 1960.30,884.46"/>
        <lane id=":-103162_0_2" index="2" disallow="tram rail_urban rail rail_electric rail_fast ship" speed="27.78" length="8.11" shape="1957.83,892.41 1957.11,884.63"/>
        <lane id=":-103162_0_3" index="3" disallow="tram rail_urban rail rail_electric rail_fast ship" speed="27.78" length="8.11" shape="1957.83,892.41 1957.01,890.04 1955.75,888.62 1954.54,887.20 1953.91,884.80"/>
    </edge>
    <edge id=":-103231_0" function="internal">
        <lane id=":-103231_0_0" index="0" disallow="tram rail_urban rail rail_electric rail_fast ship" speed="27.78" length="0.75" shape="3137.45,3388.37 3137.35,3388.69 3137.29,3388.91 3137.26,3389.13 3137.24,3389.47"/>
        <lane id=":-103231_0_1" index="1" disallow="tram rail_urban rail rail_electric rail_fast ship" speed="27.78" length="0.75" shape="3140.50,3389.34 3140.47,3389.44 3140.45,3389.52 3140.44,3389.59 3140.43,3389.70"/>
    </edge>
    <edge id=":-103245_0" function="internal">
        <lane id=":-103245_0_0" index="0" disallow="tram rail_urban rail rail_electric rail_fast ship" speed="10.84" length="12.28" shape="3195.40,3381.16 3191.89,3381.03 3188.85,3380.34 3186.25,3379.11 3184.12,3377.33"/>
    </edge>
    <edge id=":-103245_1" function="internal">
        <lane id=":-103245_1_0" index="0" disallow="tram rail_urban rail rail_electric rail_fast ship" speed="12.28" length="15.89" shape="3195.52,3384.36 3191.27,3384.14 3187.46,3383.14 3184.08,3381.38 3181.14,3378.83"/>
    </edge>
    <edge id=":-103245_2" function="internal">
        <lane id=":-103245_2_0" index="0" disallow="tram rail_urban rail rail_electric rail_fast ship" speed="6.95" length="9.25" shape="3189.92,3396.75 3190.53,3394.20 3191.70,3392.35 3193.44,3391.20 3195.75,3390.76"/>
    </edge>
    <edge id=":-103245_3" function="internal">
        <lane id=":-103245_3_0" index="0" disallow="tram rail_urban rail rail_electric rail_fast ship" speed="14.02" length="20.91" shape="3189.92,3396.75 3190.05,3391.13 3189.13,3386.02 3187.15,3381.42 3184.12,3377.33"/>
    </edge>
    <edge id=":-103245_4" function="internal">
        <lane id=":-103245_4_0" index="0" disallow="tram rail_urban rail rail_electric rail_fast ship" speed="8.59" length="5.89" shape="3186.64,3397.31 3187.60,3393.15 3188.43,3391.77"/>
    </edge>
    <edge id=":-103245_5" function="internal">
        <lane id=":-103245_5_0" index="0" disallow="tram rail_urban rail rail_electric rail_fast ship" speed="13.69" length="19.89" shape="3186.64,3397.31 3186.76,3391.95 3185.89,3387.08 3184.02,3382.71 3181.14,3378.83"/>
    </edge>
    <edge id=":-103245_6" function="internal">
        <lane id=":-103245_6_0" index="0" disallow="tram rail_urban rail rail_electric rail_fast ship" speed="8.59" length="8.77" shape="3188.43,3391.77 3189.42,3390.14 3192.10,3388.28 3195.64,3387.56"/>
    </edge>
    <edge id=":-103246_0" function="internal">
        <lane id=":-103246_0_0" index="0" disallow="tram rail_urban rail rail_electric rail_fast ship" speed="27.78" length="0.26" shape="4500.93,2611.08 4500.71,2611.08"/>
        <lane id=":-103246_0_1" index="1" disallow="tram rail_urban rail rail_electric rail_fast ship" speed="27.78" length="0.26" shape="4500.97,2614.28 4500.67,2614.28"/>
    </edge>
    <edge id=":-103490_0" function="internal">
        <lane id=":-103490_0_0" index="0" disallow="tram rail_urban rail rail_electric rail_fast ship" speed="13.18" length="10.02" shape="3165.95,4622.51 3163.60,4623.82 3161.99,4624.94 3160.33,4625.62 3157.80,4625.60"/>
        <lane id=":-103490_0_1" index="1" disallow="tram rail_urban rail rail_electric rail_fast ship" speed="14.59" length="10.02" shape="3167.53,4625.31 3164.61,4626.87 3162.58,4628.13 3160.49,4628.85 3157.34,4628.77"/>
    </edge>
    <edge id=":-103490_2" function="internal">