<?xml version="1.0" encoding="UTF-8"?>

<!-- generated on 10/10/21 17:25:59 by Eclipse SUMO netedit Version 1.6.0
<configuration xmlns:xsi="http://www.w3.org/2001/XMLSchema-instance" xsi:noNamespaceSchemaLocation="http://sumo.dlr.de/xsd/netconvertConfiguration.xsd">

    <input>
        <sumo-net-file value="E:\sumo\sumolights-master\networks\persimpangan%208\double.net.xml"/>
    </input>

    <output>
        <output-file value="E:\sumo\sumolights-master\networks\persimpangan%208\double.net.xml"/>
        <output.street-names value="true"/>
    </output>

    <processing>
        <geometry.min-radius.fix.railways value="false"/>
        <geometry.max-grade.fix value="false"/>
        <offset.disable-normalization value="true"/>
        <lefthand value="true"/>
    </processing>

    <junctions>
        <no-turnarounds value="true"/>
        <junctions.corner-detail value="5"/>
        <junctions.limit-turn-speed value="5.5"/>
        <rectangular-lane-cut value="false"/>
    </junctions>

    <pedestrian>
        <walkingareas value="false"/>
    </pedestrian>

    <report>
        <aggregate-warnings value="5"/>
    </report>

</configuration>
-->

<net version="1.6" junctionCornerDetail="5" lefthand="true" limitTurnSpeed="5.50" xmlns:xsi="http://www.w3.org/2001/XMLSchema-instance" xsi:noNamespaceSchemaLocation="http://sumo.dlr.de/xsd/net_file.xsd">

    <location netOffset="-428041.13,862981.32" convBoundary="864.06,2070.16,5113.22,3931.65" origBoundary="110.347337,-7.806746,110.402587,-7.751411" projParameter="+proj=utm +zone=49 +ellps=WGS84 +datum=WGS84 +units=m +no_defs"/>

    <type id="highway.bridleway" priority="1" numLanes="1" speed="2.78" allow="pedestrian" oneway="1" width="2.00"/>
    <type id="highway.bus_guideway" priority="1" numLanes="1" speed="27.78" allow="bus" oneway="1"/>
    <type id="highway.cycleway" priority="1" numLanes="1" speed="8.33" allow="bicycle" oneway="0" width="1.00"/>
    <type id="highway.footway" priority="1" numLanes="1" speed="2.78" allow="pedestrian" oneway="1" width="2.00"/>
    <type id="highway.ford" priority="1" numLanes="1" speed="2.78" allow="army" oneway="0"/>
    <type id="highway.living_street" priority="2" numLanes="1" speed="2.78" disallow="tram rail_urban rail rail_electric rail_fast ship" oneway="0"/>
    <type id="highway.motorway" priority="14" numLanes="2" speed="39.44" allow="private emergency authority army vip passenger hov taxi bus coach delivery truck trailer motorcycle evehicle custom1 custom2" oneway="1"/>
    <type id="highway.motorway_link" priority="9" numLanes="1" speed="22.22" allow="private emergency authority army vip passenger hov taxi bus coach delivery truck trailer motorcycle evehicle custom1 custom2" oneway="1"/>
    <type id="highway.path" priority="1" numLanes="1" speed="2.78" allow="pedestrian bicycle" oneway="1" width="2.00"/>
    <type id="highway.pedestrian" priority="1" numLanes="1" speed="2.78" allow="pedestrian" oneway="1" width="2.00"/>
    <type id="highway.primary" priority="12" numLanes="2" speed="27.78" disallow="tram rail_urban rail rail_electric rail_fast ship" oneway="0"/>
    <type id="highway.primary_link" priority="7" numLanes="1" speed="22.22" disallow="tram rail_urban rail rail_electric rail_fast ship" oneway="0"/>
    <type id="highway.raceway" priority="15" numLanes="2" speed="83.33" allow="vip" oneway="0"/>
    <type id="highway.residential" priority="3" numLanes="1" speed="13.89" disallow="tram rail_urban rail rail_electric rail_fast ship" oneway="0"/>
    <type id="highway.secondary" priority="11" numLanes="1" speed="27.78" disallow="tram rail_urban rail rail_electric rail_fast ship" oneway="0"/>
    <type id="highway.secondary_link" priority="6" numLanes="1" speed="22.22" disallow="tram rail_urban rail rail_electric rail_fast ship" oneway="0"/>
    <type id="highway.service" priority="1" numLanes="1" speed="5.56" allow="pedestrian delivery bicycle" oneway="0"/>
    <type id="highway.stairs" priority="1" numLanes="1" speed="1.39" allow="pedestrian" oneway="1" width="2.00"/>
    <type id="highway.step" priority="1" numLanes="1" speed="1.39" allow="pedestrian" oneway="1" width="2.00"/>
    <type id="highway.steps" priority="1" numLanes="1" speed="1.39" allow="pedestrian" oneway="1" width="2.00"/>
    <type id="highway.tertiary" priority="10" numLanes="1" speed="22.22" disallow="tram rail_urban rail rail_electric rail_fast ship" oneway="0"/>
    <type id="highway.tertiary_link" priority="5" numLanes="1" speed="22.22" disallow="tram rail_urban rail rail_electric rail_fast ship" oneway="0"/>
    <type id="highway.track" priority="1" numLanes="1" speed="5.56" disallow="tram rail_urban rail rail_electric rail_fast ship" oneway="0"/>
    <type id="highway.trunk" priority="13" numLanes="2" speed="27.78" disallow="pedestrian bicycle tram rail_urban rail rail_electric rail_fast ship" oneway="0"/>
    <type id="highway.trunk_link" priority="8" numLanes="1" speed="22.22" disallow="pedestrian bicycle tram rail_urban rail rail_electric rail_fast ship" oneway="0"/>
    <type id="highway.unclassified" priority="4" numLanes="1" speed="13.89" disallow="tram rail_urban rail rail_electric rail_fast ship" oneway="0"/>
    <type id="highway.unsurfaced" priority="1" numLanes="1" speed="8.33" disallow="tram rail_urban rail rail_electric rail_fast ship" oneway="0"/>
    <type id="railway.highspeed" priority="21" numLanes="1" speed="69.44" allow="rail_fast" oneway="1"/>
    <type id="railway.light_rail" priority="19" numLanes="1" speed="27.78" allow="rail_urban" oneway="1"/>
    <type id="railway.preserved" priority="16" numLanes="1" speed="27.78" allow="rail" oneway="1"/>
    <type id="railway.rail" priority="20" numLanes="1" speed="44.44" allow="rail" oneway="1"/>
    <type id="railway.subway" priority="18" numLanes="1" speed="27.78" allow="rail_urban" oneway="1"/>
    <type id="railway.tram" priority="17" numLanes="1" speed="13.89" allow="tram" oneway="1"/>

    <edge id=":-103231_0" function="internal">
        <lane id=":-103231_0_0" index="0" disallow="tram rail_urban rail rail_electric rail_fast ship" speed="27.78" length="0.75" shape="3137.45,3388.37 3137.35,3388.69 3137.29,3388.91 3137.26,3389.13 3137.24,3389.47"/>
        <lane id=":-103231_0_1" index="1" disallow="tram rail_urban rail rail_electric rail_fast ship" speed="27.78" length="0.75" shape="3140.50,3389.34 3140.47,3389.44 3140.45,3389.52 3140.44,3389.59 3140.43,3389.70"/>
    </edge>
    <edge id=":-103245_0" function="internal">
        <lane id=":-103245_0_0" index="0" disallow="tram rail_urban rail rail_electric rail_fast ship" speed="10.84" length="12.28" shape="3195.40,3381.16 3191.89,3381.03 3188.85,3380.34 3186.25,3379.11 3184.12,3377.33"/>
    </edge>
    <edge id=":-103245_1" function="internal">
        <lane id=":-103245_1_0" index="0" disallow="tram rail_urban rail rail_electric rail_fast ship" speed="12.28" length="15.89" shape="3195.52,3384.36 3191.27,3384.14 3187.46,3383.14 3184.08,3381.38 3181.14,3378.83"/>
    </edge>
    <edge id=":-103245_2" function="internal">
        <lane id=":-103245_2_0" index="0" disallow="tram rail_urban rail rail_electric rail_fast ship" speed="6.95" length="9.25" shape="3189.92,3396.75 3190.53,3394.20 3191.70,3392.35 3193.44,3391.20 3195.75,3390.76"/>
    </edge>
    <edge id=":-103245_3" function="internal">
        <lane id=":-103245_3_0" index="0" disallow="tram rail_urban rail rail_electric rail_fast ship" speed="14.02" length="20.91" shape="3189.92,3396.75 3190.05,3391.13 3189.13,3386.02 3187.15,3381.42 3184.12,3377.33"/>
    </edge>
    <edge id=":-103245_4" function="internal">
        <lane id=":-103245_4_0" index="0" disallow="tram rail_urban rail rail_electric rail_fast ship" speed="8.59" length="5.89" shape="3186.64,3397.31 3187.60,3393.15 3188.43,3391.77"/>
    </edge>
    <edge id=":-103245_5" function="internal">
        <lane id=":-103245_5_0" index="0" disallow="tram rail_urban rail rail_electric rail_fast ship" speed="13.69" length="19.89" shape="3186.64,3397.31 3186.76,3391.95 3185.89,3387.08 3184.02,3382.71 3181.14,3378.83"/>
    </edge>
    <edge id=":-103245_6" function="internal">
        <lane id=":-103245_6_0" index="0" disallow="tram rail_urban rail rail_electric rail_fast ship" speed="8.59" length="8.77" shape="3188.43,3391.77 3189.42,3390.14 3192.10,3388.28 3195.64,3387.56"/>
    </edge>
    <edge id=":-105011_0" function="internal">
        <lane id=":-105011_0_0" index="0" disallow="tram rail_urban rail rail_electric rail_fast ship" speed="6.62" length="9.69" shape="2988.29,3379.12 2985.46,3379.44 2983.29,3378.87 2981.76,3377.42 2980.89,3375.08"/>
    </edge>
    <edge id=":-105011_1" function="internal">
        <lane id=":-105011_1_0" index="0" disallow="tram rail_urban rail rail_electric rail_fast ship" speed="27.78" length="22.03" shape="2988.29,3379.12 2981.71,3381.27 2976.34,3383.81 2971.90,3386.17 2968.09,3387.78"/>
    </edge>
    <edge id=":-105011_2" function="internal">
        <lane id=":-105011_2_0" index="0" disallow="tram rail_urban rail rail_electric rail_fast ship" speed="9.08" length="20.57" shape="2989.01,3382.24 2983.67,3384.37 2980.55,3387.66 2979.65,3392.10 2980.99,3397.70"/>
    </edge>
    <edge id=":-105011_3" function="internal">
        <lane id=":-105011_3_0" index="0" disallow="tram rail_urban rail rail_electric rail_fast ship" speed="6.21" length="9.05" shape="2986.94,3395.34 2986.35,3392.87 2986.74,3390.92 2988.12,3389.49 2990.48,3388.57"/>
    </edge>
    <edge id=":-105011_4" function="internal">
        <lane id=":-105011_4_0" index="0" disallow="tram rail_urban rail rail_electric rail_fast ship" speed="20.84" length="21.48" shape="2986.94,3395.34 2984.71,3389.63 2983.26,3385.40 2982.14,3381.08 2980.89,3375.08"/>
        <lane id=":-105011_4_1" index="1" disallow="tram rail_urban rail rail_electric rail_fast ship" speed="20.84" length="21.48" shape="2983.96,3396.52 2981.71,3390.72 2980.20,3386.30 2979.02,3381.79 2977.75,3375.71"/>
    </edge>
    <edge id=":-105011_6" function="internal">
        <lane id=":-105011_6_0" index="0" disallow="tram rail_urban rail rail_electric rail_fast ship" speed="9.80" length="5.41" shape="2983.96,3396.52 2981.35,3391.78"/>
    </edge>
    <edge id=":-105011_10" function="internal">
        <lane id=":-105011_10_0" index="0" disallow="tram rail_urban rail rail_electric rail_fast ship" speed="9.80" length="14.83" shape="2981.35,3391.78 2981.19,3391.48 2977.62,3388.34 2973.25,3387.11 2968.09,3387.78"/>
    </edge>
    <edge id=":-105011_7" function="internal">
        <lane id=":-105011_7_0" index="0" disallow="tram rail_urban rail rail_electric rail_fast ship" speed="8.01" length="13.22" shape="2968.99,3390.86 2971.52,3390.78 2973.86,3392.10 2976.03,3394.79 2978.01,3398.88"/>
    </edge>
    <edge id=":-105011_8" function="internal">
        <lane id=":-105011_8_0" index="0" disallow="tram rail_urban rail rail_electric rail_fast ship" speed="27.78" length="21.46" shape="2968.99,3390.86 2989.76,3385.45"/>
    </edge>
    <edge id=":-105011_9" function="internal">
        <lane id=":-105011_9_0" index="0" disallow="tram rail_urban rail rail_electric rail_fast ship" speed="9.62" length="19.59" shape="2968.99,3390.86 2973.71,3388.69 2976.74,3385.44 2978.09,3381.12 2977.75,3375.71"/>
    </edge>
    <edge id=":-108539_0" function="internal">
        <lane id=":-108539_0_0" index="0" disallow="tram rail_urban rail rail_electric rail_fast ship" speed="27.78" length="0.23" shape="3599.77,3311.60 3599.79,3311.95"/>
        <lane id=":-108539_0_1" index="1" disallow="tram rail_urban rail rail_electric rail_fast ship" speed="27.78" length="0.23" shape="3602.97,3311.53 3602.97,3311.65"/>
    </edge>
    <edge id=":-110325_0" function="internal">
        <lane id=":-110325_0_0" index="0" disallow="tram rail_urban rail rail_electric rail_fast ship" speed="7.69" length="11.42" shape="3522.56,2618.62 3519.36,2618.16 3516.93,2616.94 3515.30,2614.95 3514.45,2612.18"/>
    </edge>
    <edge id=":-110325_1" function="internal">
        <lane id=":-110325_1_0" index="0" disallow="tram rail_urban rail rail_electric rail_fast ship" speed="27.78" length="16.28" shape="3522.56,2618.62 3506.25,2618.38"/>
        <lane id=":-110325_1_1" index="1" disallow="tram rail_urban rail rail_electric rail_fast ship" speed="27.78" length="16.28" shape="3522.51,2621.81 3506.22,2621.58"/>
        <lane id=":-110325_1_2" index="2" disallow="tram rail_urban rail rail_electric rail_fast ship" speed="27.78" length="16.28" shape="3522.45,2625.01 3506.18,2624.78"/>
        <lane id=":-110325_1_3" index="3" disallow="tram rail_urban rail rail_electric rail_fast ship" speed="27.78" length="16.28" shape="3522.39,2628.21 3506.15,2627.98"/>
    </edge>
    <edge id=":-110325_5" function="internal">
        <lane id=":-110325_5_0" index="0" disallow="tram rail_urban rail rail_electric rail_fast ship" speed="6.25" length="9.05" shape="3522.39,2628.21 3519.89,2628.53 3518.19,2629.58 3517.30,2631.37 3517.21,2633.89"/>
    </edge>
    <edge id=":-110325_6" function="internal">
        <lane id=":-110325_6_0" index="0" disallow="tram rail_urban rail rail_electric rail_fast ship" speed="6.20" length="9.05" shape="3511.29,2612.64 3511.28,2615.17 3510.44,2616.98 3508.77,2618.05 3506.25,2618.38"/>
    </edge>
    <edge id=":-110325_7" function="internal">
        <lane id=":-110325_7_0" index="0" disallow="tram rail_urban rail rail_electric rail_fast ship" speed="27.78" length="21.78" shape="3511.29,2612.64 3514.03,2634.24"/>
    </edge>
    <edge id=":-110335_0" function="internal">
        <lane id=":-110335_0_0" index="0" disallow="tram rail_urban rail rail_electric rail_fast ship" speed="25.00" length="15.88" shape="3079.68,2616.62 3074.61,2616.19 3070.81,2615.35 3067.58,2614.30 3064.24,2613.24"/>
    </edge>
    <edge id=":-110335_1" function="internal">
        <lane id=":-110335_1_0" index="0" disallow="tram rail_urban rail rail_electric rail_fast ship" speed="27.78" length="16.04" shape="3079.68,2616.62 3063.39,2617.48"/>
        <lane id=":-110335_1_1" index="1" disallow="tram rail_urban rail rail_electric rail_fast ship" speed="27.78" length="16.04" shape="3079.60,2619.81 3063.49,2620.68"/>
        <lane id=":-110335_1_2" index="2" disallow="tram rail_urban rail rail_electric rail_fast ship" speed="27.78" length="16.04" shape="3079.52,2623.01 3063.59,2623.88"/>
        <lane id=":-110335_1_3" index="3" disallow="tram rail_urban rail rail_electric rail_fast ship" speed="27.78" length="16.04" shape="3079.43,2626.21 3063.69,2627.07"/>
    </edge>
    <edge id=":-111870_0" function="internal">
        <lane id=":-111870_0_0" index="0" disallow="tram rail_urban rail rail_electric rail_fast ship" speed="9.38" length="8.09" shape="3035.56,2638.67 3037.37,2640.13 3038.75,2641.67 3039.70,2643.31 3040.22,2645.04"/>
    </edge>
    <edge id=":-111870_1" function="internal">
        <lane id=":-111870_1_0" index="0" disallow="tram rail_urban rail rail_electric rail_fast ship" speed="27.78" length="8.12" shape="3039.41,2636.85 3040.22,2645.04"/>
        <lane id=":-111870_1_1" index="1" disallow="tram rail_urban rail rail_electric rail_fast ship" speed="27.78" length="8.12" shape="3042.59,2636.52 3043.37,2644.50"/>
    </edge>
    <edge id=":-111885_0" function="internal">
        <lane id=":-111885_0_0" index="0" disallow="tram rail_urban rail rail_electric rail_fast ship" speed="16.93" length="6.80" shape="3161.47,3367.94 3159.26,3368.07 3157.73,3368.22 3156.28,3368.64 3154.30,3369.57"/>
        <lane id=":-111885_0_1" index="1" disallow="tram rail_urban rail rail_electric rail_fast ship" speed="15.40" length="6.80" shape="3161.69,3371.13 3159.87,3371.23 3158.61,3371.33 3157.40,3371.66 3155.77,3372.41"/>
    </edge>
    <edge id=":-111885_2" function="internal">
        <lane id=":-111885_2_0" index="0" disallow="tram rail_urban rail rail_electric rail_fast ship" speed="5.98" length="5.51" shape="3154.89,3364.29 3155.09,3366.36 3155.06,3367.93 3154.79,3369.00 3154.30,3369.57"/>
    </edge>
    <edge id=":-111885_3" function="internal">
        <lane id=":-111885_3_0" index="0" disallow="tram rail_urban rail rail_electric rail_fast ship" speed="7.60" length="9.39" shape="3158.06,3363.86 3158.27,3366.97 3157.96,3369.44 3157.12,3371.25 3155.77,3372.41"/>
    </edge>
    <edge id=":-115015_0" function="internal">
        <lane id=":-115015_0_0" index="0" disallow="tram rail_urban rail rail_electric rail_fast ship" speed="7.13" length="7.80" shape="3171.47,3368.86 3169.84,3368.14 3168.57,3366.91 3167.68,3365.18 3167.16,3362.94"/>
    </edge>
    <edge id=":-115015_1" function="internal">
        <lane id=":-115015_1_0" index="0" disallow="tram rail_urban rail rail_electric rail_fast ship" speed="27.78" length="9.93" shape="3171.47,3368.86 3168.62,3368.15 3166.63,3367.80 3164.60,3367.75 3161.67,3367.93"/>
    </edge>
    <edge id=":-115015_2" function="internal">
        <lane id=":-115015_2_0" index="0" disallow="tram rail_urban rail rail_electric rail_fast ship" speed="8.58" length="4.96" shape="3170.67,3371.96 3168.10,3370.87 3166.50,3369.41"/>
    </edge>
    <edge id=":-115015_3" function="internal">
        <lane id=":-115015_3_0" index="0" disallow="tram rail_urban rail rail_electric rail_fast ship" speed="27.78" length="8.89" shape="3170.67,3371.96 3168.12,3371.32 3166.33,3371.01 3164.52,3370.97 3161.89,3371.12"/>
    </edge>
    <edge id=":-115015_4" function="internal">
        <lane id=":-115015_4_0" index="0" disallow="tram rail_urban rail rail_electric rail_fast ship" speed="8.58" length="6.65" shape="3166.50,3369.41 3166.13,3369.07 3164.76,3366.57 3163.99,3363.36"/>
    </edge>
    <edge id=":-116938_0" function="internal">
        <lane id=":-116938_0_0" index="0" disallow="tram rail_urban rail rail_electric rail_fast ship" speed="10.21" length="8.35" shape="3052.85,2605.93 3050.88,2604.40 3049.49,2603.26 3048.57,2601.86 3047.99,2599.56"/>
    </edge>
    <edge id=":-116938_1" function="internal">
        <lane id=":-116938_1_0" index="0" disallow="tram rail_urban rail rail_electric rail_fast ship" speed="27.78" length="8.33" shape="3049.20,2607.81 3047.99,2599.56"/>
        <lane id=":-116938_1_1" index="1" disallow="tram rail_urban rail rail_electric rail_fast ship" speed="27.78" length="8.33" shape="3046.03,2608.27 3044.82,2600.03"/>
    </edge>
    <edge id=":-118376_0" function="internal">
        <lane id=":-118376_0_0" index="0" disallow="tram rail_urban rail rail_electric rail_fast ship" speed="27.78" length="0.24" shape="2571.43,3121.45 2571.19,3121.48"/>
    </edge>
    <edge id=":-118376_1" function="internal">
        <lane id=":-118376_1_0" index="0" disallow="tram rail_urban rail rail_electric rail_fast ship" speed="27.78" length="0.31" shape="2571.58,3124.65 2571.89,3124.61"/>
    </edge>
    <edge id=":-119755_0" function="internal">
        <lane id=":-119755_0_0" index="0" disallow="tram rail_urban rail rail_electric rail_fast ship" speed="20.17" length="19.52" shape="3154.12,3369.66 3148.92,3371.56 3145.01,3371.46 3140.90,3370.45 3135.12,3369.62"/>
    </edge>
    <edge id=":-119755_1" function="internal">
        <lane id=":-119755_1_0" index="0" disallow="tram rail_urban rail rail_electric rail_fast ship" speed="15.74" length="23.21" shape="3154.12,3369.66 3148.31,3373.16 3143.74,3377.02 3140.38,3381.24 3138.26,3385.83"/>
    </edge>
    <edge id=":-119755_2" function="internal">
        <lane id=":-119755_2_0" index="0" disallow="tram rail_urban rail rail_electric rail_fast ship" speed="20.98" length="6.83" shape="3155.59,3372.50 3150.02,3374.56 3149.13,3374.57"/>
    </edge>
    <edge id=":-119755_3" function="internal">
        <lane id=":-119755_3_0" index="0" disallow="tram rail_urban rail rail_electric rail_fast ship" speed="15.35" length="22.04" shape="3155.59,3372.50 3150.30,3375.74 3146.08,3379.43 3142.94,3383.57 3140.87,3388.16"/>
    </edge>
    <edge id=":-119755_6" function="internal">
        <lane id=":-119755_6_0" index="0" disallow="tram rail_urban rail rail_electric rail_fast ship" speed="20.98" length="14.33" shape="3149.13,3374.57 3145.69,3374.58 3141.14,3373.63 3134.95,3372.82"/>
    </edge>
    <edge id=":-119755_4" function="internal">
        <lane id=":-119755_4_0" index="0" disallow="tram rail_urban rail rail_electric rail_fast ship" speed="6.06" length="9.20" shape="3134.62,3379.21 3136.97,3379.73 3138.35,3381.01 3138.78,3383.04 3138.26,3385.83"/>
    </edge>
    <edge id=":-119755_5" function="internal">
        <lane id=":-119755_5_0" index="0" disallow="tram rail_urban rail rail_electric rail_fast ship" speed="7.90" length="16.51" shape="3134.79,3376.01 3138.84,3376.96 3141.20,3379.30 3141.88,3383.04 3140.87,3388.16"/>
    </edge>
    <edge id=":-120822_0" function="internal">
        <lane id=":-120822_0_0" index="0" disallow="tram rail_urban rail rail_electric rail_fast ship" speed="25.00" length="16.31" shape="3032.12,2589.85 3032.39,2595.04 3031.88,2599.03 3030.94,2602.43 3029.96,2605.85"/>
    </edge>
    <edge id=":-120822_1" function="internal">
        <lane id=":-120822_1_0" index="0" disallow="tram rail_urban rail rail_electric rail_fast ship" speed="27.78" length="16.33" shape="3032.12,2589.85 3034.65,2606.02"/>
        <lane id=":-120822_1_1" index="1" disallow="tram rail_urban rail rail_electric rail_fast ship" speed="27.78" length="16.33" shape="3035.29,2589.43 3037.81,2605.53"/>
    </edge>
    <edge id=":-120828_0" function="internal">
        <lane id=":-120828_0_0" index="0" disallow="tram rail_urban rail rail_electric rail_fast ship" speed="11.85" length="20.38" shape="3027.98,2611.50 3025.45,2614.66 3021.59,2616.93 3016.42,2618.30 3009.93,2618.79"/>
    </edge>
    <edge id=":-120828_1" function="internal">
        <lane id=":-120828_1_0" index="0" disallow="tram rail_urban rail rail_electric rail_fast ship" speed="27.78" length="20.49" shape="3030.39,2618.29 3009.93,2618.79"/>
        <lane id=":-120828_1_1" index="1" disallow="tram rail_urban rail rail_electric rail_fast ship" speed="27.78" length="20.49" shape="3030.44,2621.49 3009.94,2621.99"/>
    </edge>
    <edge id=":-120828_3" function="internal">
        <lane id=":-120828_3_0" index="0" disallow="tram rail_urban rail rail_electric rail_fast ship" speed="19.87" length="16.58" shape="3009.98,2628.39 3015.28,2628.70 3019.29,2629.61 3022.60,2630.97 3025.78,2632.63"/>
    </edge>
    <edge id=":-120828_4" function="internal">
        <lane id=":-120828_4_0" index="0" disallow="tram rail_urban rail rail_electric rail_fast ship" speed="27.78" length="20.55" shape="3009.98,2628.39 3030.53,2627.89"/>
        <lane id=":-120828_4_1" index="1" disallow="tram rail_urban rail rail_electric rail_fast ship" speed="27.78" length="20.55" shape="3009.96,2625.19 3030.49,2624.69"/>
    </edge>
    <edge id=":-123483_0" function="internal">
        <lane id=":-123483_0_0" index="0" disallow="tram rail_urban rail rail_electric rail_fast ship" speed="27.78" length="27.81" shape="3058.49,2617.63 3030.71,2618.29"/>
        <lane id=":-123483_0_1" index="1" disallow="tram rail_urban rail rail_electric rail_fast ship" speed="27.78" length="27.81" shape="3058.59,2620.83 3030.76,2621.49"/>
    </edge>
    <edge id=":-123483_2" function="internal">
        <lane id=":-123483_2_0" index="0" disallow="tram rail_urban rail rail_electric rail_fast ship" speed="9.88" length="23.41" shape="3058.69,2624.03 3052.45,2625.08 3045.97,2627.54 3040.97,2630.88 3039.17,2634.60"/>
    </edge>
    <edge id=":-123483_3" function="internal">
        <lane id=":-123483_3_0" index="0" disallow="tram rail_urban rail rail_electric rail_fast ship" speed="9.07" length="19.54" shape="3058.79,2627.23 3051.35,2627.87 3046.13,2629.25 3043.13,2631.39 3042.35,2634.27"/>
    </edge>
    <edge id=":-123483_4" function="internal">
        <lane id=":-123483_4_0" index="0" disallow="tram rail_urban rail rail_electric rail_fast ship" speed="27.78" length="22.99" shape="3053.63,2633.10 3049.58,2610.40"/>
        <lane id=":-123483_4_1" index="1" disallow="tram rail_urban rail rail_electric rail_fast ship" speed="27.78" length="22.99" shape="3050.45,2633.43 3046.41,2610.87"/>
    </edge>
    <edge id=":-123483_6" function="internal">
        <lane id=":-123483_6_0" index="0" disallow="tram rail_urban rail rail_electric rail_fast ship" speed="10.54" length="27.94" shape="3030.86,2627.89 3037.56,2626.29 3043.88,2622.26 3048.37,2616.68 3049.58,2610.40"/>
    </edge>
    <edge id=":-123483_7" function="internal">
        <lane id=":-123483_7_0" index="0" disallow="tram rail_urban rail rail_electric rail_fast ship" speed="9.88" length="24.39" shape="3030.81,2624.69 3038.38,2623.72 3043.50,2621.10 3046.18,2616.81 3046.41,2610.87"/>
    </edge>
    <edge id=":-123483_8" function="internal">
        <lane id=":-123483_8_0" index="0" disallow="tram rail_urban rail rail_electric rail_fast ship" speed="27.78" length="22.50" shape="3035.65,2612.44 3039.17,2634.60"/>
        <lane id=":-123483_8_1" index="1" disallow="tram rail_urban rail rail_electric rail_fast ship" speed="27.78" length="22.50" shape="3038.82,2611.98 3042.35,2634.27"/>
    </edge>
    <edge id=":-126044_0" function="internal">
        <lane id=":-126044_0_0" index="0" disallow="tram rail_urban rail rail_electric rail_fast ship" speed="27.78" length="0.29" shape="2999.82,2389.64 2999.87,2389.95"/>
        <lane id=":-126044_0_1" index="1" disallow="tram rail_urban rail rail_electric rail_fast ship" speed="27.78" length="0.29" shape="3002.98,2389.14 3003.02,2389.40"/>
    </edge>
    <edge id=":-135660_0" function="internal">
        <lane id=":-135660_0_0" index="0" disallow="tram rail_urban rail rail_electric rail_fast ship" speed="27.78" length="14.57" shape="2838.44,2619.69 2823.87,2619.78"/>
        <lane id=":-135660_0_1" index="1" disallow="tram rail_urban rail rail_electric rail_fast ship" speed="27.78" length="14.57" shape="2838.46,2622.89 2823.90,2622.98"/>
    </edge>
    <edge id=":-135660_2" function="internal">
        <lane id=":-135660_2_0" index="0" disallow="tram rail_urban rail rail_electric rail_fast ship" speed="6.13" length="9.06" shape="2833.71,2635.15 2833.58,2632.60 2834.33,2630.77 2835.97,2629.67 2838.49,2629.29"/>
    </edge>
    <edge id=":-135660_3" function="internal">
        <lane id=":-135660_3_0" index="0" disallow="tram rail_urban rail rail_electric rail_fast ship" speed="8.87" length="15.16" shape="2830.57,2635.77 2829.20,2630.16 2827.63,2626.16 2825.86,2623.76 2823.90,2622.98"/>
    </edge>
    <edge id=":-135660_4" function="internal">
        <lane id=":-135660_4_0" index="0" disallow="tram rail_urban rail rail_electric rail_fast ship" speed="27.78" length="14.54" shape="2823.97,2629.38 2838.49,2629.29"/>
        <lane id=":-135660_4_1" index="1" disallow="tram rail_urban rail rail_electric rail_fast ship" speed="27.78" length="14.54" shape="2823.93,2626.18 2838.48,2626.09"/>
    </edge>
    <edge id=":-137848_0" function="internal">
        <lane id=":-137848_0_0" index="0" disallow="tram rail_urban rail rail_electric rail_fast ship" speed="11.11" length="2.37" shape="1433.42,2631.49 1432.60,2631.51 1432.04,2631.55 1431.49,2631.66 1430.70,2631.86"/>
        <lane id=":-137848_0_1" index="1" disallow="tram rail_urban rail rail_electric rail_fast ship" speed="11.11" length="2.37" shape="1433.45,2634.69 1432.87,2634.70 1432.47,2634.73 1432.07,2634.81 1431.51,2634.95"/>
    </edge>
    <edge id=":-137848_2" function="internal">
        <lane id=":-137848_2_0" index="0" disallow="tram rail_urban rail rail_electric rail_fast ship" speed="11.11" length="0.79" shape="1433.13,2641.14 1433.25,2641.11 1433.33,2641.10 1433.41,2641.09 1433.52,2641.09"/>
        <lane id=":-137848_2_1" index="1" disallow="tram rail_urban rail rail_electric rail_fast ship" speed="11.11" length="0.79" shape="1432.32,2638.05 1432.66,2637.96 1432.90,2637.92 1433.14,2637.90 1433.49,2637.89"/>
    </edge>
    <edge id=":-138321_0" function="internal">
        <lane id=":-138321_0_0" index="0" disallow="tram rail_urban rail rail_electric rail_fast ship" speed="6.52" length="9.05" shape="1494.82,2630.97 1492.36,2630.62 1490.60,2629.57 1489.55,2627.82 1489.19,2625.37"/>
    </edge>
    <edge id=":-138321_1" function="internal">
        <lane id=":-138321_1_0" index="0" disallow="tram rail_urban rail rail_electric rail_fast ship" speed="11.11" length="20.92" shape="1494.82,2630.97 1473.88,2631.06"/>
        <lane id=":-138321_1_1" index="1" disallow="tram rail_urban rail rail_electric rail_fast ship" speed="11.11" length="20.92" shape="1494.81,2634.17 1473.91,2634.26"/>
    </edge>
    <edge id=":-138321_3" function="internal">
        <lane id=":-138321_3_0" index="0" disallow="tram rail_urban rail rail_electric rail_fast ship" speed="9.27" length="19.42" shape="1494.81,2634.17 1489.56,2634.92 1485.81,2637.17 1483.55,2640.95 1482.79,2646.23"/>
    </edge>
    <edge id=":-138321_4" function="internal">
        <lane id=":-138321_4_0" index="0" disallow="tram rail_urban rail rail_electric rail_fast ship" speed="6.53" length="9.10" shape="1489.19,2646.25 1489.54,2643.76 1490.60,2641.99 1492.35,2640.92 1494.80,2640.57"/>
    </edge>
    <edge id=":-138321_5" function="internal">
        <lane id=":-138321_5_0" index="0" disallow="tram rail_urban rail rail_electric rail_fast ship" speed="20.84" length="20.87" shape="1489.19,2646.25 1489.19,2625.37"/>
        <lane id=":-138321_5_1" index="1" disallow="tram rail_urban rail rail_electric rail_fast ship" speed="20.84" length="20.87" shape="1485.99,2646.24 1485.99,2625.37"/>
    </edge>
    <edge id=":-138321_7" function="internal">